LTspice 24.1.7 for Windows
Circuit: C:\users\macmysz\Documents\projekty\onyks-projekts\onyks-iot-monitor-power\sim\adc_testing\voltage_sim.net
Start Time: Wed Apr 30 12:48:07 2025
solver = Normal
Maximum thread count: 4
tnom = 27
temp = 27
method = modified trap
Direct Newton iteration for .op point succeeded.
Total elapsed time: 0.522 seconds.

Files loaded:
C:\users\macmysz\Documents\projekty\onyks-projekts\onyks-iot-monitor-power\sim\adc_testing\voltage_sim.net
C:\users\macmysz\AppData\Local\LTspice\lib\cmp\standard.dio

