LTspice 24.1.7 for Windows
Circuit: C:\users\macmysz\Documents\Projects\onyks_projects\onyks-iot-monitor-power\sim\adc_testing\voltage_sim.net
Start Time: Wed Apr 30 01:00:34 2025
solver = Normal
Maximum thread count: 16
tnom = 27
temp = 27
method = trap
.OP point found by inspection.
Total elapsed time: 0.117 seconds.

Files loaded:
C:\users\macmysz\Documents\Projects\onyks_projects\onyks-iot-monitor-power\sim\adc_testing\voltage_sim.net
C:\users\macmysz\AppData\Local\LTspice\lib\cmp\standard.dio

