LTspice 24.1.7 for Windows
Circuit: C:\users\macmysz\Documents\projekty\onyks-projekts\onyks-iot-monitor-power\sim\adc_testing\voltage_sim.net
Start Time: Mon Apr 28 11:21:03 2025
solver = Normal
Maximum thread count: 4
tnom = 27
temp = 27
method = modified trap
.OP point found by inspection.
Total elapsed time: 0.099 seconds.

Files loaded:
C:\users\macmysz\Documents\projekty\onyks-projekts\onyks-iot-monitor-power\sim\adc_testing\voltage_sim.net

